<?xml version="1.0" encoding="UTF-8"?>

<!-- generated on 2023-09-30 10:51:10 by Eclipse SUMO netedit Version 1.18.0
-->

<routes xmlns:xsi="http://www.w3.org/2001/XMLSchema-instance" xsi:noNamespaceSchemaLocation="http://sumo.dlr.de/xsd/routes_file.xsd">
    <!-- VTypes -->
    <vType id="DEFAULT_VEHTYPE" vClass="bus" color="red"/>
    <vType id="t_0"/>
    <!-- Routes -->
    <route id="r_2" edges="642764203 621109809#4 642764201#0 546835727#0 1072047566#0 1072047566#1" color="yellow"/>
</routes>
