<?xml version="1.0" encoding="UTF-8"?>

<!-- generated on 2023-09-30 09:05:16.888608 by osmWebWizard.py v1_18_0+0000-03ecfdea036
<configuration>
    <net-file value="C:\Users\moloj\2023-09-30-09-05-11\osm.net.xml.gz"/>
    <output-trip-file value="C:\Users\moloj\2023-09-30-09-05-11\osm.passenger.trips.xml"/>
    <route-file value="C:\Users\moloj\2023-09-30-09-05-11\osm.passenger.rou.xml"/>
    <prefix value="veh"/>
    <trip-attributes value="departLane=&quot;best&quot;"/>
    <fringe-start-attributes value="departSpeed=&quot;max&quot;"/>
    <vehicle-class value="passenger"/>
    <lanes value="True"/>
    <fringe-factor value="5"/>
    <allow-fringe.min-length value="1000.0"/>
    <via-edge-types value="highway.motorway,highway.motorway_link,highway.trunk_link,highway.primary_link,highway.secondary_link,highway.tertiary_link"/>
    <min-distance value="300.0"/>
    <min-distance.fringe value="10.0"/>
    <remove-loops value="True"/>
    <validate value="True"/>
    <insertion-density value="12.0"/>
</configuration>
-->

<!-- generated on 2023-09-30 09:05:16 by Eclipse SUMO duarouter Version 1.18.0
<configuration xmlns:xsi="http://www.w3.org/2001/XMLSchema-instance" xsi:noNamespaceSchemaLocation="http://sumo.dlr.de/xsd/duarouterConfiguration.xsd">

    <input>
        <net-file value="C:\Users\moloj\2023-09-30-09-05-11\osm.net.xml.gz"/>
        <route-files value="C:\Users\moloj\2023-09-30-09-05-11\osm.passenger.trips.xml"/>
    </input>

    <output>
        <output-file value="C:\Users\moloj\2023-09-30-09-05-11\osm.passenger.trips.xml.tmp"/>
        <alternatives-output value="NUL"/>
        <write-trips value="true"/>
    </output>

    <processing>
        <remove-loops value="true"/>
    </processing>

    <time>
        <begin value="0.0"/>
        <end value="3600.0"/>
    </time>

    <report>
        <no-warnings value="true"/>
        <ignore-errors value="true"/>
        <no-step-log value="true"/>
    </report>

</configuration>
-->

<routes xmlns:xsi="http://www.w3.org/2001/XMLSchema-instance" xsi:noNamespaceSchemaLocation="http://sumo.dlr.de/xsd/routes_file.xsd">
    <vType id="veh_passenger" vClass="passenger"/>
    <trip id="veh0" type="veh_passenger" depart="0.00" departLane="best" departSpeed="max" from="642764203" to="28295750"/>
    <trip id="veh1" type="veh_passenger" depart="21.85" departLane="best" departSpeed="max" from="5131465#0" to="1072047566#1"/>
    <trip id="veh2" type="veh_passenger" depart="43.71" departLane="best" departSpeed="max" from="642764203" to="114100851#10"/>
    <trip id="veh3" type="veh_passenger" depart="65.56" departLane="best" departSpeed="max" from="805866547" to="1072047566#0"/>
    <trip id="veh4" type="veh_passenger" depart="87.41" departLane="best" from="621109809#4" to="28295750"/>
    <trip id="veh6" type="veh_passenger" depart="131.12" departLane="best" from="-28295750" to="1072047566#1"/>
    <trip id="veh9" type="veh_passenger" depart="196.67" departLane="best" departSpeed="max" from="805866547" to="114100851#4"/>
    <trip id="veh10" type="veh_passenger" depart="218.53" departLane="best" departSpeed="max" from="5131465#0" to="1072047566#1"/>
    <trip id="veh11" type="veh_passenger" depart="240.38" departLane="best" departSpeed="max" from="805866547" to="114100851#13"/>
    <trip id="veh13" type="veh_passenger" depart="284.09" departLane="best" from="546835727#0" to="114100851#13"/>
    <trip id="veh14" type="veh_passenger" depart="305.94" departLane="best" departSpeed="max" from="805866547" to="114100851#13"/>
    <trip id="veh15" type="veh_passenger" depart="327.79" departLane="best" departSpeed="max" from="805866547" to="114100851#13"/>
    <trip id="veh16" type="veh_passenger" depart="349.64" departLane="best" departSpeed="max" from="642764203" to="546835729"/>
    <trip id="veh17" type="veh_passenger" depart="371.50" departLane="best" from="-28295750" to="1072047566#1"/>
    <trip id="veh18" type="veh_passenger" depart="393.35" departLane="best" from="1072047566#0" to="1072047566#1"/>
    <trip id="veh19" type="veh_passenger" depart="415.20" departLane="best" from="1072047566#0" to="1072047566#1"/>
    <trip id="veh20" type="veh_passenger" depart="437.06" departLane="best" departSpeed="max" from="642764203" to="1072047566#1"/>
    <trip id="veh21" type="veh_passenger" depart="458.91" departLane="best" from="546835727#0" to="1072047566#1"/>
    <trip id="veh24" type="veh_passenger" depart="524.47" departLane="best" from="114100851#4" to="114100851#10"/>
    <trip id="veh25" type="veh_passenger" depart="546.32" departLane="best" departSpeed="max" from="642764203" to="114100851#10"/>
    <trip id="veh27" type="veh_passenger" depart="590.02" departLane="best" departSpeed="max" from="5131465#0" to="1072047566#1"/>
    <trip id="veh29" type="veh_passenger" depart="633.73" departLane="best" departSpeed="max" from="805866547" to="114100851#13"/>
    <trip id="veh30" type="veh_passenger" depart="655.58" departLane="best" departSpeed="max" from="5131465#0" to="1072047566#1"/>
    <trip id="veh31" type="veh_passenger" depart="677.44" departLane="best" departSpeed="max" from="642764203" to="1072047566#1"/>
    <trip id="veh32" type="veh_passenger" depart="699.29" departLane="best" departSpeed="max" from="642764203" to="642764201#0"/>
    <trip id="veh33" type="veh_passenger" depart="721.14" departLane="best" from="-546835729" to="1072047566#1"/>
    <trip id="veh34" type="veh_passenger" depart="742.99" departLane="best" from="114100851#10" to="114100851#13"/>
    <trip id="veh35" type="veh_passenger" depart="764.85" departLane="best" departSpeed="max" from="805866547" to="114100851#13"/>
    <trip id="veh38" type="veh_passenger" depart="830.41" departLane="best" departSpeed="max" from="5131465#0" to="114100851#13"/>
    <trip id="veh39" type="veh_passenger" depart="852.26" departLane="best" from="114100851#10" to="114100851#13"/>
    <trip id="veh40" type="veh_passenger" depart="874.11" departLane="best" departSpeed="max" from="642764203" to="1072047566#1"/>
    <trip id="veh42" type="veh_passenger" depart="917.82" departLane="best" departSpeed="max" from="5131465#0" to="114100851#13"/>
    <trip id="veh43" type="veh_passenger" depart="939.67" departLane="best" departSpeed="max" from="642764203" to="1072047566#1"/>
    <trip id="veh44" type="veh_passenger" depart="961.52" departLane="best" departSpeed="max" from="805866547" to="114100851#13"/>
    <trip id="veh45" type="veh_passenger" depart="983.37" departLane="best" departSpeed="max" from="805866547" to="114100851#13"/>
    <trip id="veh46" type="veh_passenger" depart="1005.23" departLane="best" from="-138669452" to="1072047566#1"/>
    <trip id="veh49" type="veh_passenger" depart="1070.79" departLane="best" departSpeed="max" from="5131465#0" to="98695184#0"/>
    <trip id="veh52" type="veh_passenger" depart="1136.34" departLane="best" departSpeed="max" from="5131465#0" to="642764201#0"/>
    <trip id="veh53" type="veh_passenger" depart="1158.20" departLane="best" from="621109809#4" to="1072047566#1"/>
    <trip id="veh54" type="veh_passenger" depart="1180.05" departLane="best" departSpeed="max" from="642764203" to="138669452"/>
    <trip id="veh55" type="veh_passenger" depart="1201.90" departLane="best" from="114100851#4" to="1072047566#1"/>
    <trip id="veh56" type="veh_passenger" depart="1223.75" departLane="best" from="114100851#4" to="1072047566#1"/>
    <trip id="veh57" type="veh_passenger" depart="1245.61" departLane="best" departSpeed="max" from="5131465#0" to="114100851#13"/>
    <trip id="veh58" type="veh_passenger" depart="1267.46" departLane="best" from="-28295750" to="1072047566#1"/>
    <trip id="veh60" type="veh_passenger" depart="1311.17" departLane="best" departSpeed="max" from="805866547" to="1072047566#0"/>
    <trip id="veh62" type="veh_passenger" depart="1354.87" departLane="best" from="-138669452" to="1072047566#1"/>
    <trip id="veh63" type="veh_passenger" depart="1376.72" departLane="best" departSpeed="max" from="805866547" to="114100851#13"/>
    <trip id="veh65" type="veh_passenger" depart="1420.43" departLane="best" departSpeed="max" from="642764203" to="114100851#10"/>
    <trip id="veh66" type="veh_passenger" depart="1442.28" departLane="best" from="886071482" to="1072047566#0"/>
    <trip id="veh67" type="veh_passenger" depart="1464.14" departLane="best" from="-546835729" to="1072047566#1"/>
    <trip id="veh68" type="veh_passenger" depart="1485.99" departLane="best" from="114100851#4" to="114100851#13"/>
    <trip id="veh69" type="veh_passenger" depart="1507.84" departLane="best" from="621109809#4" to="1072047566#1"/>
    <trip id="veh71" type="veh_passenger" depart="1551.55" departLane="best" departSpeed="max" from="642764203" to="546835729"/>
    <trip id="veh73" type="veh_passenger" depart="1595.25" departLane="best" from="642764201#0" to="1072047566#1"/>
    <trip id="veh74" type="veh_passenger" depart="1617.10" departLane="best" departSpeed="max" from="5131465#0" to="546835727#0"/>
    <trip id="veh75" type="veh_passenger" depart="1638.96" departLane="best" departSpeed="max" from="805866547" to="114100851#4"/>
    <trip id="veh76" type="veh_passenger" depart="1660.81" departLane="best" departSpeed="max" from="642764203" to="114100851#10"/>
    <trip id="veh77" type="veh_passenger" depart="1682.66" departLane="best" from="114100851#4" to="1072047566#1"/>
    <trip id="veh78" type="veh_passenger" depart="1704.52" departLane="best" departSpeed="max" from="805866547" to="114100851#13"/>
    <trip id="veh79" type="veh_passenger" depart="1726.37" departLane="best" departSpeed="max" from="642764203" to="28295750"/>
    <trip id="veh80" type="veh_passenger" depart="1748.22" departLane="best" from="-98695184#2" to="114100851#13"/>
    <trip id="veh82" type="veh_passenger" depart="1791.93" departLane="best" from="1072047566#0" to="1072047566#1"/>
    <trip id="veh83" type="veh_passenger" depart="1813.78" departLane="best" departSpeed="max" from="642764203" to="114100851#10"/>
    <trip id="veh84" type="veh_passenger" depart="1835.63" departLane="best" from="-28295750" to="1072047566#1"/>
    <trip id="veh85" type="veh_passenger" depart="1857.49" departLane="best" departSpeed="max" from="5131465#0" to="114100851#10"/>
    <trip id="veh86" type="veh_passenger" depart="1879.34" departLane="best" departSpeed="max" from="642764203" to="1072047566#1"/>
    <trip id="veh87" type="veh_passenger" depart="1901.19" departLane="best" departSpeed="max" from="5131465#0" to="28295750"/>
    <trip id="veh89" type="veh_passenger" depart="1944.90" departLane="best" from="98695184#0" to="98695184#0"/>
    <trip id="veh90" type="veh_passenger" depart="1966.75" departLane="best" from="1072047566#0" to="1072047566#1"/>
    <trip id="veh93" type="veh_passenger" depart="2032.31" departLane="best" from="546835727#0" to="1072047566#1"/>
    <trip id="veh94" type="veh_passenger" depart="2054.16" departLane="best" departSpeed="max" from="805866547" to="114100851#4"/>
    <trip id="veh95" type="veh_passenger" depart="2076.01" departLane="best" departSpeed="max" from="642764203" to="138669452"/>
    <trip id="veh96" type="veh_passenger" depart="2097.87" departLane="best" from="114100851#4" to="1072047566#1"/>
    <trip id="veh98" type="veh_passenger" depart="2141.57" departLane="best" departSpeed="max" from="5131465#0" to="114100851#13"/>
    <trip id="veh99" type="veh_passenger" depart="2163.42" departLane="best" departSpeed="max" from="642764203" to="1072047566#1"/>
    <trip id="veh100" type="veh_passenger" depart="2185.28" departLane="best" departSpeed="max" from="642764203" to="1072047566#1"/>
    <trip id="veh101" type="veh_passenger" depart="2207.13" departLane="best" departSpeed="max" from="805866547" to="1072047566#0"/>
    <trip id="veh102" type="veh_passenger" depart="2228.98" departLane="best" from="621109809#4" to="1072047566#1"/>
    <trip id="veh104" type="veh_passenger" depart="2272.69" departLane="best" departSpeed="max" from="642764203" to="1072047566#1"/>
    <trip id="veh105" type="veh_passenger" depart="2294.54" departLane="best" departSpeed="max" from="805866547" to="114100851#13"/>
    <trip id="veh106" type="veh_passenger" depart="2316.39" departLane="best" from="621109809#4" to="138669452"/>
    <trip id="veh107" type="veh_passenger" depart="2338.25" departLane="best" departSpeed="max" from="805866547" to="114100851#13"/>
    <trip id="veh108" type="veh_passenger" depart="2360.10" departLane="best" departSpeed="max" from="805866547" to="114100851#13"/>
    <trip id="veh109" type="veh_passenger" depart="2381.95" departLane="best" from="114100851#4" to="1072047566#1"/>
    <trip id="veh110" type="veh_passenger" depart="2403.80" departLane="best" departSpeed="max" from="5131465#0" to="642764201#0"/>
    <trip id="veh112" type="veh_passenger" depart="2447.51" departLane="best" departSpeed="max" from="5131465#0" to="1072047566#0"/>
    <trip id="veh119" type="veh_passenger" depart="2600.48" departLane="best" departSpeed="max" from="805866547" to="1072047566#0"/>
    <trip id="veh122" type="veh_passenger" depart="2666.04" departLane="best" from="642764201#0" to="1072047566#1"/>
    <trip id="veh123" type="veh_passenger" depart="2687.89" departLane="best" from="-28295750" to="1072047566#1"/>
    <trip id="veh124" type="veh_passenger" depart="2709.74" departLane="best" departSpeed="max" from="5131465#0" to="642764201#0"/>
    <trip id="veh125" type="veh_passenger" depart="2731.60" departLane="best" from="114100851#10" to="114100851#13"/>
    <trip id="veh126" type="veh_passenger" depart="2753.45" departLane="best" departSpeed="max" from="642764203" to="1072047566#1"/>
    <trip id="veh127" type="veh_passenger" depart="2775.30" departLane="best" from="546835727#0" to="114100851#13"/>
    <trip id="veh128" type="veh_passenger" depart="2797.15" departLane="best" departSpeed="max" from="5131465#0" to="114100851#10"/>
    <trip id="veh130" type="veh_passenger" depart="2840.86" departLane="best" departSpeed="max" from="642764203" to="114100851#10"/>
    <trip id="veh131" type="veh_passenger" depart="2862.71" departLane="best" departSpeed="max" from="805866547" to="114100851#13"/>
    <trip id="veh132" type="veh_passenger" depart="2884.56" departLane="best" departSpeed="max" from="642764203" to="1072047566#1"/>
    <trip id="veh134" type="veh_passenger" depart="2928.27" departLane="best" departSpeed="max" from="642764203" to="1072047566#1"/>
    <trip id="veh135" type="veh_passenger" depart="2950.12" departLane="best" departSpeed="max" from="5131465#0" to="114100851#10"/>
    <trip id="veh136" type="veh_passenger" depart="2971.98" departLane="best" from="-546835729" to="1072047566#1"/>
    <trip id="veh137" type="veh_passenger" depart="2993.83" departLane="best" from="114100851#10" to="114100851#13"/>
    <trip id="veh138" type="veh_passenger" depart="3015.68" departLane="best" departSpeed="max" from="805866547" to="114100851#4"/>
    <trip id="veh139" type="veh_passenger" depart="3037.53" departLane="best" departSpeed="max" from="805866547" to="114100851#13"/>
    <trip id="veh140" type="veh_passenger" depart="3059.39" departLane="best" departSpeed="max" from="5131465#0" to="114100851#13"/>
    <trip id="veh141" type="veh_passenger" depart="3081.24" departLane="best" from="-138669452" to="1072047566#1"/>
    <trip id="veh142" type="veh_passenger" depart="3103.09" departLane="best" from="621109809#4" to="1072047566#1"/>
    <trip id="veh144" type="veh_passenger" depart="3146.80" departLane="best" departSpeed="max" from="642764203" to="1072047566#1"/>
    <trip id="veh145" type="veh_passenger" depart="3168.65" departLane="best" departSpeed="max" from="805866547" to="28295750"/>
    <trip id="veh146" type="veh_passenger" depart="3190.50" departLane="best" departSpeed="max" from="642764203" to="1072047566#1"/>
    <trip id="veh147" type="veh_passenger" depart="3212.36" departLane="best" departSpeed="max" from="5131465#0" to="114100851#13"/>
    <trip id="veh148" type="veh_passenger" depart="3234.21" departLane="best" departSpeed="max" from="805866547" to="1072047566#0"/>
    <trip id="veh149" type="veh_passenger" depart="3256.06" departLane="best" from="642764201#0" to="1072047566#1"/>
    <trip id="veh150" type="veh_passenger" depart="3277.91" departLane="best" departSpeed="max" from="642764203" to="138669452"/>
    <trip id="veh154" type="veh_passenger" depart="3365.33" departLane="best" departSpeed="max" from="642764203" to="546835729"/>
    <trip id="veh156" type="veh_passenger" depart="3409.03" departLane="best" from="642764201#0" to="546835729"/>
    <trip id="veh157" type="veh_passenger" depart="3430.88" departLane="best" departSpeed="max" from="642764203" to="98695184#0"/>
    <trip id="veh158" type="veh_passenger" depart="3452.74" departLane="best" departSpeed="max" from="805866547" to="114100851#13"/>
    <trip id="veh159" type="veh_passenger" depart="3474.59" departLane="best" departSpeed="max" from="805866547" to="114100851#13"/>
    <trip id="veh160" type="veh_passenger" depart="3496.44" departLane="best" departSpeed="max" from="805866547" to="28295750"/>
    <trip id="veh161" type="veh_passenger" depart="3518.30" departLane="best" from="642764201#0" to="1072047566#1"/>
    <trip id="veh162" type="veh_passenger" depart="3540.15" departLane="best" departSpeed="max" from="5131465#0" to="114100851#13"/>
    <trip id="veh163" type="veh_passenger" depart="3562.00" departLane="best" departSpeed="max" from="805866547" to="114100851#13"/>
    <trip id="veh164" type="veh_passenger" depart="3583.85" departLane="best" departSpeed="max" from="642764203" to="1072047566#1"/>
</routes>
