<?xml version="1.0" encoding="UTF-8"?>

<!-- generated on 2023-09-30 09:05:14 by Eclipse SUMO netconvert Version 1.18.0
<configuration xmlns:xsi="http://www.w3.org/2001/XMLSchema-instance" xsi:noNamespaceSchemaLocation="http://sumo.dlr.de/xsd/netconvertConfiguration.xsd">

    <input>
        <type-files value="${SUMO_HOME}/data/typemap/osmNetconvert.typ.xml,${SUMO_HOME}/data/typemap/osmNetconvertAerialway.typ.xml"/>
        <osm-files value="osm_bbox.osm.xml.gz"/>
    </input>

    <output>
        <output-file value="osm.net.xml.gz"/>
        <output.street-names value="true"/>
        <output.original-names value="true"/>
        <ptstop-output value="osm_stops.add.xml"/>
        <ptline-output value="osm_ptlines.xml"/>
    </output>

    <projection>
        <proj value="+proj=merc +a=6378137 +b=6378137 +lat_ts=0.0 +lon_0=0.0 +x_0=0.0 +y_0=0 +k=1.0 +units=m +nadgrids=@null +wktext +no_defs"/>
    </projection>

    <processing>
        <geometry.remove value="true"/>
        <roundabouts.guess value="true"/>
        <lefthand value="true"/>
    </processing>

    <tls_building>
        <tls.discard-simple value="true"/>
        <tls.join value="true"/>
        <tls.guess-signals value="true"/>
        <tls.default-type value="actuated"/>
    </tls_building>

    <ramp_guessing>
        <ramps.guess value="true"/>
    </ramp_guessing>

    <edge_removal>
        <keep-edges.by-vclass value="passenger,bus,tram,rail_urban,rail"/>
    </edge_removal>

    <junctions>
        <junctions.join value="true"/>
        <junctions.corner-detail value="5"/>
    </junctions>

    <railway>
        <railway.topology.repair value="true"/>
    </railway>

</configuration>
-->

<additional xmlns:xsi="http://www.w3.org/2001/XMLSchema-instance" xsi:noNamespaceSchemaLocation="http://sumo.dlr.de/xsd/additional_file.xsd">
    <busStop id="7604405235" name="SM City North EDSA" lane="720045555#0_0" startPos="10.11" endPos="25.11" friendlyPos="true"/>
    <busStop id="7604405236" name="SM City North EDSA" lane="114100851#13_0" startPos="156.48" endPos="171.48" friendlyPos="true"/>
    <busStop id="7604405237" name="SM City North EDSA" lane="114100851#13_0" startPos="163.21" endPos="178.21" friendlyPos="true"/>
    <busStop id="7604405238" name="SM City North EDSA" lane="114100851#13_0" startPos="170.09" endPos="185.09" friendlyPos="true"/>
    <busStop id="7604405239" name="SM City North EDSA" lane="114100851#13_0" startPos="176.85" endPos="191.85" friendlyPos="true"/>
    <busStop id="7604405240" name="SM City North EDSA" lane="720045555#0_0" startPos="9.97" endPos="24.97" friendlyPos="true"/>
    <busStop id="7604405253" name="SM City North EDSA" lane="114100851#13_0" startPos="183.69" endPos="198.69" friendlyPos="true"/>
    <busStop id="7604405254" name="SM City North EDSA" lane="114100851#13_0" startPos="190.56" endPos="205.56" friendlyPos="true"/>
    <busStop id="7604405255" name="SM City North EDSA" lane="114100851#13_0" startPos="197.47" endPos="212.47" friendlyPos="true"/>
</additional>
