<?xml version="1.0" encoding="UTF-8"?>

<!-- generated on 2023-10-01 17:11:50 by Eclipse SUMO netedit Version 1.18.0
<configuration xmlns:xsi="http://www.w3.org/2001/XMLSchema-instance" xsi:noNamespaceSchemaLocation="http://sumo.dlr.de/xsd/neteditConfiguration.xsd">

    <input>
        <sumocfg-file value="C:\Users\NITRO 5\Desktop\SUMO\osm.sumocfg"/>
        <route-files value="C:\Users\NITRO 5\Desktop\SUMO\vehicles.rou.xml"/>
        <sumo-net-file value="C:\Users\NITRO 5\Desktop\SUMO\TEST.net.xml"/>
    </input>

    <output>
        <output-file value="C:\Users\NITRO 5\Desktop\SUMO\TEST.net.xml"/>
        <output.street-names value="true"/>
    </output>

    <processing>
        <geometry.min-radius.fix.railways value="false"/>
        <geometry.max-grade.fix value="false"/>
        <offset.disable-normalization value="true"/>
        <lefthand value="1"/>
    </processing>

    <junctions>
        <no-turnarounds value="true"/>
        <junctions.corner-detail value="5"/>
        <junctions.limit-turn-speed value="5.50"/>
        <rectangular-lane-cut value="0"/>
    </junctions>

    <pedestrian>
        <walkingareas value="0"/>
    </pedestrian>

</configuration>
-->

<net version="1.16" junctionCornerDetail="5" lefthand="true" limitTurnSpeed="5.50" xmlns:xsi="http://www.w3.org/2001/XMLSchema-instance" xsi:noNamespaceSchemaLocation="http://sumo.dlr.de/xsd/net_file.xsd">

    <location netOffset="-13471781.28,-1649230.92" convBoundary="0.00,0.00,1184.04,901.65" origBoundary="121.019070,14.652905,121.032819,14.660742" projParameter="+proj=merc +a=6378137 +b=6378137 +lat_ts=0.0 +lon_0=0.0 +x_0=0.0 +y_0=0 +k=1.0 +units=m +nadgrids=@null +wktext +no_defs"/>

    <type id="highway.residential" priority="3" numLanes="1" speed="13.89" disallow="tram rail_urban rail rail_electric rail_fast ship" oneway="0"/>
    <type id="highway.tertiary" priority="10" numLanes="1" speed="22.22" disallow="tram rail_urban rail rail_electric rail_fast ship" oneway="0"/>
    <type id="highway.trunk" priority="13" numLanes="2" speed="27.78" disallow="pedestrian bicycle tram rail_urban rail rail_electric rail_fast ship" oneway="0"/>

    <edge id=":103791875_0" function="internal">
        <lane id=":103791875_0_0" index="0" disallow="tram rail_urban rail rail_electric rail_fast ship" speed="3.65" length="4.67" shape="882.27,902.00 883.31,903.00 884.18,903.21 884.87,902.65 885.39,901.30"/>
    </edge>
    <edge id=":1316799535_0" function="internal">
        <lane id=":1316799535_0_0" index="0" disallow="bicycle tram rail_urban rail rail_electric rail_fast ship" speed="16.67" length="9.30" shape="560.13,453.33 569.10,451.15"/>
        <lane id=":1316799535_0_1" index="1" disallow="bicycle tram rail_urban rail rail_electric rail_fast ship" speed="16.67" length="9.30" shape="559.36,450.22 568.37,448.04"/>
        <lane id=":1316799535_0_2" index="2" disallow="bicycle tram rail_urban rail rail_electric rail_fast ship" speed="16.67" length="9.30" shape="558.58,447.12 567.65,444.92"/>
        <lane id=":1316799535_0_3" index="3" disallow="bicycle tram rail_urban rail rail_electric rail_fast ship" speed="16.67" length="9.30" shape="557.80,444.01 566.92,441.80"/>
    </edge>
    <edge id=":1316799535_4" function="internal">
        <lane id=":1316799535_4_0" index="0" disallow="bicycle tram rail_urban rail rail_electric rail_fast ship" speed="6.02" length="7.93" shape="557.80,444.01 560.45,443.13 562.20,442.04 563.05,440.73 562.99,439.22"/>
    </edge>
    <edge id=":1316799535_5" function="internal">
        <lane id=":1316799535_5_0" index="0" disallow="bicycle tram rail_urban rail rail_electric rail_fast ship" speed="7.05" length="10.14" shape="559.94,440.18 561.14,442.76 562.83,444.41 565.00,445.13 567.65,444.92"/>
        <lane id=":1316799535_5_1" index="1" disallow="bicycle tram rail_urban rail rail_electric rail_fast ship" speed="6.28" length="7.85" shape="559.94,440.18 560.73,441.42 562.16,442.10 564.22,442.23 566.92,441.80"/>
    </edge>
    <edge id=":1316799535_7" function="internal">
        <lane id=":1316799535_7_0" index="0" disallow="tram rail_urban rail rail_electric rail_fast ship" speed="3.65" length="4.67" shape="559.94,440.18 561.06,441.09 561.95,441.23 562.59,440.60 562.99,439.22"/>
    </edge>
    <edge id=":35456301_0" function="internal">
        <lane id=":35456301_0_0" index="0" disallow="bicycle tram rail_urban rail rail_electric rail_fast ship" speed="16.67" length="10.31" shape="1055.08,359.20 1045.07,361.51"/>
        <lane id=":35456301_0_1" index="1" disallow="bicycle tram rail_urban rail rail_electric rail_fast ship" speed="16.67" length="10.31" shape="1055.81,362.31 1045.78,364.63"/>
        <lane id=":35456301_0_2" index="2" disallow="bicycle tram rail_urban rail rail_electric rail_fast ship" speed="16.67" length="10.31" shape="1056.55,365.43 1046.49,367.75"/>
        <lane id=":35456301_0_3" index="3" disallow="bicycle tram rail_urban rail rail_electric rail_fast ship" speed="16.67" length="10.31" shape="1057.28,368.54 1047.20,370.87"/>
    </edge>
    <edge id=":35456301_4" function="internal">
        <lane id=":35456301_4_0" index="0" disallow="bicycle tram rail_urban rail rail_electric rail_fast ship" speed="7.31" length="11.74" shape="1053.89,375.10 1052.71,371.42 1051.08,368.96 1049.01,367.74 1046.49,367.75"/>
        <lane id=":35456301_4_1" index="1" disallow="bicycle tram rail_urban rail rail_electric rail_fast ship" speed="6.50" length="9.03" shape="1053.89,375.10 1053.01,372.78 1051.61,371.31 1049.67,370.67 1047.20,370.87"/>
    </edge>
    <edge id=":35456381_0" function="internal">
        <lane id=":35456381_0_0" index="0" disallow="tram rail_urban rail rail_electric rail_fast ship" speed="13.89" length="8.21" shape="1064.45,427.23 1064.14,424.84 1064.31,423.15 1064.47,421.47 1064.16,419.08"/>
    </edge>
    <edge id=":452811250_0" function="internal">
        <lane id=":452811250_0_0" index="0" disallow="bicycle tram rail_urban rail rail_electric rail_fast ship" speed="16.67" length="9.45" shape="913.22,371.24 922.47,369.14"/>
        <lane id=":452811250_0_1" index="1" disallow="bicycle tram rail_urban rail rail_electric rail_fast ship" speed="16.67" length="9.45" shape="912.52,368.12 921.75,366.03"/>
        <lane id=":452811250_0_2" index="2" disallow="bicycle tram rail_urban rail rail_electric rail_fast ship" speed="16.67" length="9.45" shape="911.82,365.00 921.02,362.91"/>
        <lane id=":452811250_0_3" index="3" disallow="bicycle tram rail_urban rail rail_electric rail_fast ship" speed="16.67" length="9.45" shape="911.13,361.88 920.30,359.79"/>
    </edge>
    <edge id=":452811250_4" function="internal">
        <lane id=":452811250_4_0" index="0" disallow="bicycle tram rail_urban rail rail_electric rail_fast ship" speed="6.11" length="7.78" shape="911.13,361.88 913.77,361.08 915.56,360.08 916.51,358.87 916.61,357.45"/>
    </edge>
    <edge id=":452811250_5" function="internal">
        <lane id=":452811250_5_0" index="0" disallow="bicycle tram rail_urban rail rail_electric rail_fast ship" speed="6.84" length="10.22" shape="913.48,358.13 914.45,360.76 916.03,362.43 918.22,363.15 921.02,362.91"/>
        <lane id=":452811250_5_1" index="1" disallow="bicycle tram rail_urban rail rail_electric rail_fast ship" speed="6.06" length="7.78" shape="913.48,358.13 914.15,359.39 915.52,360.09 917.57,360.22 920.30,359.79"/>
    </edge>
    <edge id=":452811250_7" function="internal">
        <lane id=":452811250_7_0" index="0" disallow="tram rail_urban rail rail_electric rail_fast ship" speed="3.65" length="4.67" shape="913.48,358.13 914.52,359.13 915.39,359.35 916.08,358.79 916.61,357.45"/>
    </edge>
    <edge id=":5284066447_0" function="internal">
        <lane id=":5284066447_0_0" index="0" disallow="tram rail_urban rail rail_electric rail_fast ship" speed="13.89" length="0.31" shape="819.98,619.45 819.91,619.15"/>
    </edge>
    <edge id=":5284066447_1" function="internal">
        <lane id=":5284066447_1_0" index="0" disallow="tram rail_urban rail rail_electric rail_fast ship" speed="13.89" length="0.28" shape="816.80,619.91 816.87,620.18"/>
    </edge>
    <edge id=":5284066454_0" function="internal">
        <lane id=":5284066454_0_0" index="0" disallow="bicycle tram rail_urban rail rail_electric rail_fast ship" speed="16.67" length="15.84" shape="565.59,470.69 550.11,474.18"/>
        <lane id=":5284066454_0_1" index="1" disallow="bicycle tram rail_urban rail rail_electric rail_fast ship" speed="16.67" length="15.84" shape="566.28,473.81 550.82,477.30"/>
        <lane id=":5284066454_0_2" index="2" disallow="bicycle tram rail_urban rail rail_electric rail_fast ship" speed="16.67" length="15.84" shape="566.98,476.94 551.54,480.42"/>
        <lane id=":5284066454_0_3" index="3" disallow="bicycle tram rail_urban rail rail_electric rail_fast ship" speed="16.67" length="15.84" shape="567.67,480.06 552.25,483.54"/>
    </edge>
    <edge id=":5284066454_4" function="internal">
        <lane id=":5284066454_4_0" index="0" disallow="bicycle tram rail_urban rail rail_electric rail_fast ship" speed="7.86" length="13.78" shape="567.67,480.06 562.29,481.47 558.55,482.92 556.45,484.43 556.00,485.99"/>
        <lane id=":5284066454_4_1" index="1" disallow="bicycle tram rail_urban rail rail_electric rail_fast ship" speed="7.01" length="10.75" shape="567.67,480.06 563.65,481.16 560.89,482.39 559.37,483.76 559.12,485.25"/>
    </edge>
    <edge id=":5284066454_6" function="internal">
        <lane id=":5284066454_6_0" index="0" disallow="bicycle tram rail_urban rail rail_electric rail_fast ship" speed="8.41" length="15.70" shape="565.34,483.78 563.93,481.25 561.16,479.85 557.03,479.57 551.54,480.42"/>
        <lane id=":5284066454_6_1" index="1" disallow="bicycle tram rail_urban rail rail_electric rail_fast ship" speed="7.06" length="10.75" shape="562.23,484.51 561.33,483.29 559.37,482.73 556.34,482.81 552.25,483.54"/>
    </edge>
    <edge id=":5284066454_8" function="internal">
        <lane id=":5284066454_8_0" index="0" disallow="tram rail_urban rail rail_electric rail_fast ship" speed="3.65" length="4.67" shape="562.23,484.51 561.18,483.53 560.30,483.33 559.62,483.90 559.12,485.25"/>
    </edge>
    <edge id=":6758193506_0" function="internal">
        <lane id=":6758193506_0_0" index="0" disallow="bicycle tram rail_urban rail rail_electric rail_fast ship" speed="16.67" length="10.34" shape="1065.37,356.81 1055.28,359.15"/>
        <lane id=":6758193506_0_1" index="1" disallow="bicycle tram rail_urban rail rail_electric rail_fast ship" speed="16.67" length="10.34" shape="1066.09,359.93 1056.01,362.27"/>
        <lane id=":6758193506_0_2" index="2" disallow="bicycle tram rail_urban rail rail_electric rail_fast ship" speed="16.67" length="10.34" shape="1066.80,363.05 1056.74,365.38"/>
        <lane id=":6758193506_0_3" index="3" disallow="bicycle tram rail_urban rail rail_electric rail_fast ship" speed="16.67" length="10.34" shape="1067.52,366.16 1057.48,368.50"/>
    </edge>
    <edge id=":6758193506_4" function="internal">
        <lane id=":6758193506_4_0" index="0" disallow="bicycle tram rail_urban rail rail_electric rail_fast ship" speed="6.52" length="9.01" shape="1067.52,366.16 1065.22,367.05 1063.76,368.46 1063.12,370.40 1063.31,372.87"/>
    </edge>
    <edge id=":8392436553_0" function="internal">
        <lane id=":8392436553_0_0" index="0" disallow="bicycle tram rail_urban rail rail_electric rail_fast ship" speed="16.67" length="8.21" shape="848.04,406.91 845.77,407.70 844.33,408.61 842.90,409.51 840.62,410.30"/>
        <lane id=":8392436553_0_1" index="1" disallow="bicycle tram rail_urban rail rail_electric rail_fast ship" speed="16.67" length="8.21" shape="848.78,410.02 846.50,410.82 845.07,411.72 843.63,412.62 841.36,413.42"/>
        <lane id=":8392436553_0_2" index="2" disallow="bicycle tram rail_urban rail rail_electric rail_fast ship" speed="16.67" length="8.21" shape="849.51,413.14 847.12,413.45 845.43,413.28 843.75,413.11 841.36,413.42"/>
        <lane id=":8392436553_0_3" index="3" disallow="bicycle tram rail_urban rail rail_electric rail_fast ship" speed="16.67" length="8.21" shape="850.25,416.25 847.85,416.56 846.17,416.39 844.48,416.23 842.09,416.53"/>
    </edge>
    <edge id=":84508244_0" function="internal">
        <lane id=":84508244_0_0" index="0" disallow="tram rail_urban rail rail_electric rail_fast ship" speed="3.65" length="4.67" shape="624.89,752.32 625.97,753.27 626.85,753.46 627.52,752.87 627.99,751.50"/>
    </edge>
    <edge id=":cluster_5284066448_8392436544_8392436550_8392436562_#2more_0" function="internal">
        <lane id=":cluster_5284066448_8392436544_8392436550_8392436562_#2more_0_0" index="0" disallow="bicycle tram rail_urban rail rail_electric rail_fast ship" speed="16.67" length="20.33" shape="781.03,424.57 775.12,425.68 770.99,425.97 766.85,426.22 760.91,427.22"/>
    </edge>
    <edge id=":cluster_5284066448_8392436544_8392436550_8392436562_#2more_1" function="internal">
        <lane id=":cluster_5284066448_8392436544_8392436550_8392436562_#2more_1_0" index="0" disallow="bicycle tram rail_urban rail rail_electric rail_fast ship" speed="9.25" length="44.73" shape="781.82,427.67 790.59,417.96 792.33,410.04 787.04,403.89 774.70,399.52"/>
        <lane id=":cluster_5284066448_8392436544_8392436550_8392436562_#2more_1_1" index="1" disallow="bicycle tram rail_urban rail rail_electric rail_fast ship" speed="9.73" length="44.73" shape="781.82,427.67 791.56,416.89 793.49,408.10 787.61,401.27 773.92,396.42"/>
    </edge>
    <edge id=":cluster_5284066448_8392436544_8392436550_8392436562_#2more_3" function="internal">
        <lane id=":cluster_5284066448_8392436544_8392436550_8392436562_#2more_3_0" index="0" disallow="bicycle tram rail_urban rail rail_electric rail_fast ship" speed="16.67" length="20.46" shape="782.60,430.77 762.99,436.60"/>
    </edge>
    <edge id=":cluster_5284066448_8392436544_8392436550_8392436562_#2more_4" function="internal">
        <lane id=":cluster_5284066448_8392436544_8392436550_8392436562_#2more_4_0" index="0" disallow="bicycle tram rail_urban rail rail_electric rail_fast ship" speed="16.67" length="19.58" shape="756.36,406.81 775.49,402.63"/>
    </edge>
    <edge id=":cluster_5284066448_8392436544_8392436550_8392436562_#2more_5" function="internal">
        <lane id=":cluster_5284066448_8392436544_8392436550_8392436562_#2more_5_0" index="0" disallow="bicycle tram rail_urban rail rail_electric rail_fast ship" speed="8.98" length="22.28" shape="755.67,403.69 747.15,412.58 745.30,419.98"/>
        <lane id=":cluster_5284066448_8392436544_8392436550_8392436562_#2more_5_1" index="1" disallow="bicycle tram rail_urban rail rail_electric rail_fast ship" speed="9.46" length="22.28" shape="755.67,403.69 746.16,413.62 744.09,421.89"/>
        <lane id=":cluster_5284066448_8392436544_8392436550_8392436562_#2more_5_2" index="2" disallow="bicycle tram rail_urban rail rail_electric rail_fast ship" speed="9.46" length="22.28" shape="754.97,400.56 745.46,410.49 743.39,418.77"/>
        <lane id=":cluster_5284066448_8392436544_8392436550_8392436562_#2more_5_3" index="3" disallow="bicycle tram rail_urban rail rail_electric rail_fast ship" speed="9.92" length="22.28" shape="754.97,400.56 744.46,411.54 742.18,420.68"/>
    </edge>
    <edge id=":cluster_5284066448_8392436544_8392436550_8392436562_#2more_9" function="internal">
        <lane id=":cluster_5284066448_8392436544_8392436550_8392436562_#2more_9_0" index="0" disallow="bicycle tram rail_urban rail rail_electric rail_fast ship" speed="16.67" length="19.30" shape="754.28,397.44 773.13,393.32"/>
    </edge>
    <edge id=":cluster_5284066448_8392436544_8392436550_8392436562_#2more_10" function="internal">
        <lane id=":cluster_5284066448_8392436544_8392436550_8392436562_#2more_10_0" index="0" disallow="bicycle tram rail_urban rail rail_electric rail_fast ship" speed="8.98" length="19.95" shape="745.30,419.98 750.12,425.91 761.60,430.35"/>
    </edge>
    <edge id=":cluster_5284066448_8392436544_8392436550_8392436562_#2more_11" function="internal">
        <lane id=":cluster_5284066448_8392436544_8392436550_8392436562_#2more_11_0" index="0" disallow="bicycle tram rail_urban rail rail_electric rail_fast ship" speed="9.46" length="22.28" shape="744.09,421.89 749.47,428.51 762.30,433.47"/>
    </edge>
    <edge id=":cluster_5284066448_8392436544_8392436550_8392436562_#2more_12" function="internal">
        <lane id=":cluster_5284066448_8392436544_8392436550_8392436562_#2more_12_0" index="0" disallow="bicycle tram rail_urban rail rail_electric rail_fast ship" speed="9.46" length="22.28" shape="743.39,418.77 748.78,425.39 761.60,430.35"/>
    </edge>
    <edge id=":cluster_5284066448_8392436544_8392436550_8392436562_#2more_13" function="internal">
        <lane id=":cluster_5284066448_8392436544_8392436550_8392436562_#2more_13_0" index="0" disallow="bicycle tram rail_urban rail rail_electric rail_fast ship" speed="9.92" length="24.62" shape="742.18,420.68 748.13,427.99 762.30,433.47"/>
    </edge>

    <edge id="-138669452" from="103791875" to="5284066447" name="Nueva Ecija Street" priority="3" type="highway.residential" shape="883.83,901.65 864.00,813.21 852.56,765.32 851.19,759.59 828.77,664.15 818.39,619.67">
        <lane id="-138669452_0" index="0" disallow="tram rail_urban rail rail_electric rail_fast ship" speed="13.89" length="289.35" shape="885.39,901.30 865.56,812.85 854.12,764.95 852.75,759.22 830.33,663.78 819.98,619.45">
            <param key="origId" value="138669452"/>
        </lane>
    </edge>
    <edge id="-28295750" from="84508244" to="5284066454" name="Corregidor Street" priority="10" type="highway.tertiary" shape="626.44,751.91 612.25,697.93 599.54,647.74 587.83,599.57 586.89,595.68 561.71,489.25 558.83,477.11">
        <lane id="-28295750_0" index="0" disallow="tram rail_urban rail rail_electric rail_fast ship" speed="11.11" length="274.94" shape="631.08,750.69 616.90,696.73 604.20,646.58 592.49,598.44 591.56,594.56 566.38,488.14 565.34,483.78">
            <param key="origId" value="28295750"/>
        </lane>
        <lane id="-28295750_1" index="1" disallow="tram rail_urban rail rail_electric rail_fast ship" speed="11.11" length="274.94" shape="627.99,751.50 613.80,697.53 601.09,647.35 589.38,599.19 588.45,595.31 563.27,488.88 562.23,484.51">
            <param key="origId" value="28295750"/>
        </lane>
    </edge>
    <edge id="-546835729" from="5284066447" to="cluster_5284066448_8392436544_8392436550_8392436562_#2more" name="Nueva Ecija Extension" priority="3" type="highway.residential" shape="818.39,619.67 808.30,578.56 776.93,441.25 774.26,429.49">
        <lane id="-546835729_0" index="0" disallow="tram rail_urban rail rail_electric rail_fast ship" speed="13.89" length="195.06" shape="819.91,619.15 809.86,578.19 778.49,440.89 775.82,429.14">
            <param key="origId" value="546835729"/>
        </lane>
        <param key="origTo" value="5284066448"/>
    </edge>
    <edge id="-98695184#2" from="1316799535" to="452811250" name="Bansalangin Street" priority="10" type="highway.tertiary" shape="563.91,447.43 560.79,437.58 558.13,420.84 552.04,377.81 542.03,333.23 514.07,282.93 504.52,273.35 491.19,264.16 482.49,255.96 477.19,249.40 471.64,240.61 464.45,226.21 457.68,198.22 457.77,187.82 459.38,175.88 461.74,167.74 465.28,159.65 469.18,152.39 474.47,143.87 486.86,130.70 495.62,120.63 505.69,112.45 537.04,94.30 614.08,50.24 668.26,19.91 681.65,13.28 696.10,6.79 709.26,3.08 721.71,1.19 733.78,0.00 740.96,0.01 754.52,1.78 762.82,3.91 771.47,6.75 781.42,11.97 788.65,18.02 801.80,31.40 849.56,100.25 862.95,132.48 868.99,149.55 880.96,199.67 892.80,253.34 915.31,359.04 916.74,365.54">
        <lane id="-98695184#2_0" index="0" disallow="tram rail_urban rail rail_electric rail_fast ship" speed="5.56" length="1052.79" shape="562.99,439.22 562.35,437.21 559.71,420.60 553.62,377.52 543.54,332.65 515.36,281.96 505.55,272.12 492.20,262.91 483.67,254.87 478.49,248.47 473.04,239.82 465.96,225.66 459.28,198.04 459.37,187.93 460.95,176.21 463.25,168.29 466.72,160.35 470.57,153.19 475.74,144.85 488.05,131.77 496.74,121.78 506.60,113.77 537.84,95.69 614.87,51.63 669.01,21.33 682.33,14.73 696.65,8.30 709.60,4.65 721.91,2.78 733.86,1.60 740.85,1.61 754.22,3.35 762.37,5.45 770.84,8.23 780.52,13.31 787.56,19.20 800.56,32.42 848.15,101.02 861.46,133.05 867.45,150.00 879.40,200.03 891.24,253.68 913.48,358.13">
            <param key="origId" value="98695184"/>
        </lane>
    </edge>
    <edge id="1" from="1293071630" to="1316799535" name="EDSA" priority="13" type="highway.trunk" spreadType="center" shape="0.00,531.78 30.42,531.76 84.66,531.23 106.10,530.92 143.31,529.06 157.98,527.49 170.86,525.43 264.91,512.80 307.41,506.15 347.67,497.84 379.17,491.30 397.42,487.34 421.79,482.26 437.99,478.58 459.57,473.25 547.21,451.62 563.91,447.43">
        <lane id="1_0" index="0" disallow="bicycle tram rail_urban rail rail_electric rail_fast ship" speed="16.67" length="567.15" shape="0.00,536.58 30.45,536.56 84.72,536.03 106.25,535.72 143.69,533.85 158.61,532.25 171.56,530.18 265.60,517.55 308.27,510.87 348.64,502.54 380.17,496.00 398.42,492.03 422.81,486.95 439.10,483.25 460.72,477.91 548.36,456.28 560.13,453.33">
            <param key="origId" value="805866547 853576399 853576399 114100851 114100851"/>
        </lane>
        <lane id="1_1" index="1" disallow="bicycle tram rail_urban rail rail_electric rail_fast ship" speed="16.67" length="567.15" shape="0.00,533.38 30.43,533.36 84.68,532.83 106.15,532.52 143.44,530.66 158.19,529.08 171.09,527.01 265.14,514.38 307.70,507.72 347.99,499.41 379.50,492.87 397.75,488.90 422.13,483.82 438.36,480.14 459.95,474.80 547.59,453.17 559.36,450.22">
            <param key="origId" value="805866547 853576399 853576399 114100851 114100851"/>
        </lane>
        <lane id="1_2" index="2" disallow="bicycle tram rail_urban rail rail_electric rail_fast ship" speed="16.67" length="567.15" shape="-0.00,530.18 30.41,530.16 84.64,529.63 106.05,529.32 143.18,527.46 157.77,525.90 170.63,523.85 264.68,511.22 307.12,504.58 347.35,496.27 378.84,489.73 397.09,485.78 421.45,480.70 437.62,477.02 459.19,471.70 546.83,450.07 558.58,447.12">
            <param key="origId" value="805866547 853576399 853576399 114100851 114100851"/>
        </lane>
        <lane id="1_3" index="3" disallow="bicycle tram rail_urban rail rail_electric rail_fast ship" speed="16.67" length="567.15" shape="-0.00,526.98 30.39,526.96 84.60,526.43 105.95,526.12 142.93,524.27 157.35,522.73 170.16,520.68 264.22,508.05 306.55,501.43 346.70,493.14 378.17,486.60 396.42,482.65 420.77,477.57 436.88,473.91 458.42,468.59 546.06,446.96 557.80,444.01">
            <param key="origId" value="805866547 853576399 853576399 114100851 114100851"/>
        </lane>
        <param key="ref" value="1"/>
    </edge>
    <edge id="1072047566#0" from="cluster_5284066448_8392436544_8392436550_8392436562_#2more" to="5284066454" name="EDSA" priority="13" type="highway.trunk" spreadType="center" shape="761.95,431.91 558.83,477.11">
        <lane id="1072047566#0_0" index="0" disallow="bicycle tram rail_urban rail rail_electric rail_fast ship" speed="16.67" length="200.10" shape="760.91,427.22 565.59,470.69">
            <param key="origId" value="1072047566"/>
        </lane>
        <lane id="1072047566#0_1" index="1" disallow="bicycle tram rail_urban rail rail_electric rail_fast ship" speed="16.67" length="200.10" shape="761.60,430.35 566.28,473.81">
            <param key="origId" value="1072047566"/>
        </lane>
        <lane id="1072047566#0_2" index="2" disallow="bicycle tram rail_urban rail rail_electric rail_fast ship" speed="16.67" length="200.10" shape="762.30,433.47 566.98,476.94">
            <param key="origId" value="1072047566"/>
        </lane>
        <lane id="1072047566#0_3" index="3" disallow="bicycle tram rail_urban rail rail_electric rail_fast ship" speed="16.67" length="200.10" shape="762.99,436.60 567.67,480.06">
            <param key="origId" value="1072047566"/>
        </lane>
        <param key="origFrom" value="8392436550"/>
        <param key="ref" value="1"/>
    </edge>
    <edge id="1072047566#1" from="5284066454" to="2467577361" name="EDSA" priority="13" type="highway.trunk" spreadType="center" shape="558.83,477.11 490.96,492.64 427.75,507.08 386.94,516.24 364.70,521.87 326.78,529.95 310.01,533.65 275.11,540.14 171.91,553.61 143.27,557.35 120.48,559.66 111.17,560.71">
        <lane id="1072047566#1_0" index="0" disallow="bicycle tram rail_urban rail rail_electric rail_fast ship" speed="16.67" length="448.06" shape="550.11,474.18 489.89,487.96 426.69,502.40 385.83,511.57 363.61,517.19 325.76,525.26 309.05,528.95 274.36,535.40 171.29,548.85 142.72,552.58 119.97,554.89 110.63,555.94">
            <param key="origId" value="1072047566 805866546 546608888 546608888"/>
        </lane>
        <lane id="1072047566#1_1" index="1" disallow="bicycle tram rail_urban rail rail_electric rail_fast ship" speed="16.67" length="448.06" shape="550.82,477.30 490.60,491.08 427.40,505.52 386.57,514.68 364.34,520.31 326.44,528.39 309.69,532.08 274.86,538.56 171.70,552.02 143.09,555.76 120.31,558.07 110.99,559.12">
            <param key="origId" value="1072047566 805866546 546608888 546608888"/>
        </lane>
        <lane id="1072047566#1_2" index="2" disallow="bicycle tram rail_urban rail rail_electric rail_fast ship" speed="16.67" length="448.06" shape="551.54,480.42 491.32,494.20 428.10,508.64 387.31,517.80 365.06,523.43 327.12,531.51 310.33,535.22 275.36,541.72 172.12,555.20 143.45,558.94 120.65,561.25 111.35,562.30">
            <param key="origId" value="1072047566 805866546 546608888 546608888"/>
        </lane>
        <lane id="1072047566#1_3" index="3" disallow="bicycle tram rail_urban rail rail_electric rail_fast ship" speed="16.67" length="448.06" shape="552.25,483.54 492.03,497.32 428.81,511.76 388.05,520.91 365.79,526.55 327.80,534.64 310.97,538.35 275.86,544.88 172.53,558.37 143.82,562.12 120.99,564.43 111.71,565.48">
            <param key="origId" value="1072047566 805866546 546608888 546608888"/>
        </lane>
        <param key="ref" value="1"/>
    </edge>
    <edge id="138669452" from="5284066447" to="103791875" name="Nueva Ecija Street" priority="3" type="highway.residential" shape="818.39,619.67 828.77,664.15 851.19,759.59 852.56,765.32 864.00,813.21 883.83,901.65">
        <lane id="138669452_0" index="0" disallow="tram rail_urban rail rail_electric rail_fast ship" speed="13.89" length="289.32" shape="816.87,620.18 827.21,664.51 849.63,759.96 851.00,765.69 862.44,813.57 882.27,902.00">
            <param key="origId" value="138669452"/>
        </lane>
    </edge>
    <edge id="2" from="1316799535" to="cluster_5284066448_8392436544_8392436550_8392436562_#2more" name="EDSA" priority="13" type="highway.trunk" spreadType="center" shape="563.91,447.43 576.68,444.46 597.43,439.44 674.46,420.43 695.41,415.49 753.23,402.59">
        <lane id="2_0" index="0" disallow="bicycle tram rail_urban rail rail_electric rail_fast ship" speed="16.67" length="192.50" shape="569.10,451.15 577.79,449.13 598.57,444.10 675.59,425.10 696.48,420.17 756.36,406.81">
            <param key="origId" value="114100851"/>
        </lane>
        <lane id="2_1" index="1" disallow="bicycle tram rail_urban rail rail_electric rail_fast ship" speed="16.67" length="192.50" shape="568.37,448.04 577.05,446.02 597.81,440.99 674.84,421.99 695.77,417.05 755.67,403.69">
            <param key="origId" value="114100851"/>
        </lane>
        <lane id="2_2" index="2" disallow="bicycle tram rail_urban rail rail_electric rail_fast ship" speed="16.67" length="192.50" shape="567.65,444.92 576.31,442.90 597.05,437.89 674.08,418.87 695.05,413.93 754.97,400.56">
            <param key="origId" value="114100851"/>
        </lane>
        <lane id="2_3" index="3" disallow="bicycle tram rail_urban rail rail_electric rail_fast ship" speed="16.67" length="192.50" shape="566.92,441.80 575.57,439.79 596.29,434.78 673.33,415.76 694.34,410.81 754.28,397.44">
            <param key="origId" value="114100851"/>
        </lane>
        <param key="origTo" value="8392436562"/>
        <param key="ref" value="1"/>
    </edge>
    <edge id="28295750" from="5284066454" to="84508244" name="Corregidor Street" priority="10" type="highway.tertiary" shape="558.83,477.11 561.71,489.25 586.89,595.68 587.83,599.57 599.54,647.74 612.25,697.93 626.44,751.91">
        <lane id="28295750_0" index="0" disallow="tram rail_urban rail rail_electric rail_fast ship" speed="11.11" length="275.10" shape="556.00,485.99 557.04,490.36 582.22,596.79 583.17,600.70 594.88,648.90 607.60,699.13 621.80,753.13">
            <param key="origId" value="28295750"/>
        </lane>
        <lane id="28295750_1" index="1" disallow="tram rail_urban rail rail_electric rail_fast ship" speed="11.11" length="275.10" shape="559.12,485.25 560.15,489.62 585.33,596.05 586.28,599.95 597.99,648.13 610.70,698.33 624.89,752.32">
            <param key="origId" value="28295750"/>
        </lane>
    </edge>
    <edge id="3" from="cluster_5284066448_8392436544_8392436550_8392436562_#2more" to="452811250" name="EDSA" priority="13" type="highway.trunk" spreadType="center" shape="769.85,399.10 794.77,392.80 811.51,389.13 836.31,383.50 916.74,365.54">
        <lane id="3_0" index="0" disallow="bicycle tram rail_urban rail rail_electric rail_fast ship" speed="16.67" length="141.40" shape="775.49,402.63 795.87,397.47 812.56,393.81 837.36,388.18 913.22,371.24">
            <param key="origId" value="114100851"/>
        </lane>