<?xml version="1.0" encoding="UTF-8"?>

<!-- generated on 2023-10-01 19:22:52 by Eclipse SUMO netedit Version 1.18.0
-->

<routes xmlns:xsi="http://www.w3.org/2001/XMLSchema-instance" xsi:noNamespaceSchemaLocation="http://sumo.dlr.de/xsd/routes_file.xsd">
    <!-- VTypes -->
    <vType id="DEFAULT_VEHTYPE" vClass="bus" color="red"/>
    <vType id="t_0" vClass="bus"/>
    <!-- Routes -->
    <route id="r_0" edges="1 2 3 4" color="yellow"/>
    <route id="r_1" edges="1 2 1072047566#0 1072047566#1" color="red"/>
    <route id="r_2" edges="642764203 621109809#4 642764201#0 546835727#0 1072047566#0 1072047566#1" color="yellow"/>
    <!-- Vehicles, persons and containers (sorted by depart) -->
    <flow id="b_0" type="t_0" begin="0.00" from="1" to="4" via="2 3" end="3600.00" vehsPerHour="1800.00"/>
    <flow id="b_1" type="t_0" begin="0.00" from="642764203" to="1072047566#1" via="621109809#4 642764201#0 546835727#0 1072047566#0" end="3600.00" vehsPerHour="1800.00"/>
    <flow id="f_0" begin="0.00" departLane="2" line="2" from="1" to="1072047566#1" via="2 1072047566#0" end="3600.00" probability="0.50"/>
    <flow id="f_1" begin="0.00" departLane="3" line="3" from="1" to="1072047566#1" via="2 1072047566#0" end="3600.00" probability="0.50"/>
    <flow id="f_2" begin="0.00" departLane="2" line="2" from="642764203" to="4" via="621109809#4 642764201#0 3" end="3600.00" probability="0.50"/>
</routes>
